/*--------------------------------*- C++ -*----------------------------------*\
| =========                 |                                                 |
| \\      /  F ield         | OpenFOAM: The Open Source CFD Toolbox           |
|  \\    /   O peration     | Version:  2.4.0                                 |
|   \\  /    A nd           | Web:      www.OpenFOAM.org                      |
|    \\/     M anipulation  |                                                 |
\*---------------------------------------------------------------------------*/
FoamFile
{
    version     2.0;
    format      ascii;
    class       dictionary;
    object      blockMeshDict;
}
// * * * * * * * * * * * * * * * * * * * * * * * * * * * * * * * * * * * * * //

convertToMeters 1;

vertices
(

    (0 -.25 0)
    (1 -.25 0)
    (1 0 0)
    (0 0 0)

    (0 -.25 .4)
    (1 -.25 .4)
    (1 0 .4)
    (0 0 .4)

);

blocks
(
    hex (0 1 2 3 4 5 6 7) (32 16 1) simpleGrading (1 1 1)
);

edges
(
);

boundary
(

    left
    {
        type wall;
        faces
        (
            (4 7 3 0)
        );
    }

    right
    {
        type wall;
        faces
        (
            (1 2 6 5)
        );
    }

    interface
    {
        type wall;
        faces
        (
            (7 6 2 3)
        );
    }

    bottom
    {
        type wall;
        faces
        (
            (4 0 1 5)
        );
    }

);

mergePatchPairs
(
);

// ************************************************************************* //
