/*--------------------------------*- C++ -*----------------------------------*\
| =========                 |                                                 |
| \\      /  F ield         | OpenFOAM: The Open Source CFD Toolbox           |
|  \\    /   O peration     | Version:  v2006                                 |
|   \\  /    A nd           | Website:  www.openfoam.com                      |
|    \\/     M anipulation  |                                                 |
\*---------------------------------------------------------------------------*/
FoamFile
{
    version     2.0;
    format      ascii;
    class       dictionary;
    location    "system";
    object      readFields;
}
// * * * * * * * * * * * * * * * * * * * * * * * * * * * * * * * * * * * * * //

readFieldKappa1
{
    type            readFields;
    libs            (fieldFunctionObjects);

    fields          (kappa);
    readOnStart     true;

    // Optional (inherited) entries
    enabled         true;
    log             true;

    executeControl  timeStep;
    executeInterval 1;
    writeControl    writeTime;
}

// ************************************************************************* //
