FoamFile
{
    version     2.0;
    format      ascii;
    class       dictionary;
    location    "system";
    object      preciceDict;
}

preciceConfig precice-config.xml;

participant Fluid;

modules (CHT FSI);

interfaces
{
  Interface1
  {
    mesh              Solid-to-Inner-Fluid;
    locations         faceNodes;
    connectivity      false;
    patches           (inner-interface);
    
    readData
    (
      Sink-Temperature-Inner-Fluid
      Heat-Transfer-Coefficient-Inner-Fluid
    );
    
    writeData
    (
      Sink-Temperature-Solid
      Heat-Transfer-Coefficient-Solid
    );
  };
  
  Interface2
  {
    mesh        Solid-to-Outer-Fluid;
    patches     (outer-interface);
    
    readData
    (
      Sink-Temperature-Outer-Fluid
      Heat-Transfer-Coefficient-Outer-Fluid
    );
    
    writeData
    (
      Sink-Temperature-Solid
      Heat-Transfer-Coefficient-Solid
    );
  };
};

CHT
{
   solverType compresible;
   nameT T1;
   nameTransportProperties transportProperties1;
   nameKappa k1;
   nameRho rho1;
   nameCp Cp1;
   namePr Pr1;
   nameAlphat alphat1;
//   rho [ 1 -3  0  0 0 0 0 ] 50;
//   Cp  [ 0  2 -2 -1 0 0 0 ] 5;
//   k   [ 1  1 -3 -1 0 0 0 ] 100;
};

evaluateBoundaries false;