/*--------------------------------*- C++ -*----------------------------------*\
| =========                 |                                                 |
| \\      /  F ield         | OpenFOAM: The Open Source CFD Toolbox           |
|  \\    /   O peration     | Version:  v2006                                 |
|   \\  /    A nd           | Website:  www.openfoam.com                      |
|    \\/     M anipulation  |                                                 |
\*---------------------------------------------------------------------------*/
FoamFile
{
    version     2.0;
    format      ascii;
    class       dictionary;
    location    "system";
    object      controlDict;
}
// * * * * * * * * * * * * * * * * * * * * * * * * * * * * * * * * * * * * * //

application     laplacianFoam;

startFrom       startTime;

startTime       0;

stopAt          endTime;

endTime         600.0;

deltaT          0.001;

writeControl    adjustable;
writeInterval   0.04;

purgeWrite      0;

writeFormat     binary;

writePrecision  9;

writeCompression off;

timeFormat      general;

timePrecision   6;

runTimeModifiable false;
adjustTimeStep  no;

libs ("libpreciceAdapterBoundaryConditions");

functions
{
    #include "readFields"

    preCICE_Adapter
    {
        type preciceAdapterFunctionObject;
        libs ("libpreciceAdapterFunctionObject.so");
    }
}

// ************************************************************************* //
