/*--------------------------------*- C++ -*----------------------------------*\
| =========                 |                                                 |
| \\      /  F ield         | OpenFOAM: The Open Source CFD Toolbox           |
|  \\    /   O peration     | Version:  5                                     |
|   \\  /    A nd           | Web:      www.OpenFOAM.org                      |
|    \\/     M anipulation  |                                                 |
\*---------------------------------------------------------------------------*/
FoamFile
{
    version     2.0;
    format      ascii;
    class       volScalarField;
    object      kappa;
}
// * * * * * * * * * * * * * * * * * * * * * * * * * * * * * * * * * * * * * //

dimensions      [1  1 -3 -1 0 0 0];

internalField   uniform 16.2; // X5CrNi18-10 , 100 °C

boundaryField
{
    #includeEtc "caseDicts/setConstraintTypes"

    "InterfaceHeater.*"
    {
        type            fixedValue;
        value           $internalField;
    }

    frontAndBack
    {
        type            empty;
    }
}

// ************************************************************************* //
