/*--------------------------------*- C++ -*----------------------------------*\
  =========                 |
  \\      /  F ield         | OpenFOAM: The Open Source CFD Toolbox
   \\    /   O peration     | Website:  https://openfoam.org
    \\  /    A nd           | Version:  7
     \\/     M anipulation  |
\*---------------------------------------------------------------------------*/
FoamFile
{
    version     2.0;
    format      ascii;
    class       dictionary;
    object      blockMeshDict;
}
// * * * * * * * * * * * * * * * * * * * * * * * * * * * * * * * * * * * * * //

convertToMeters 1;

xleft 0;
xmiddle 10;
xright 7;

ybottom 0;
ymiddle 2;
ytop 7;

zback 0;
zmiddle 2.5;
zfront 5;

resx 15;
resy $ytop;
resz 40;

vertices
(
    ($xleft $ybottom $zback) //0
    ($xright $ybottom $zback) //1
    ($xleft $ymiddle $zback) //2
    ($xright $ymiddle $zback) //3
    ($xleft $ytop $zback) //4
    ($xright $ytop $zback) //5

    ($xleft $ybottom $zfront) //6
    ($xright $ybottom $zfront) //7
    ($xleft $ymiddle $zfront) //8
    ($xright $ymiddle $zfront) //9
    ($xleft $ytop $zfront) //10
    ($xright $ytop $zfront) //11

);

blocks
(
    hex (0 1 3 2 6 7 9 8) ($resx 15 $resz) simpleGrading (1 1 1)
    hex (2 3 5 4 8 9 11 10) ($resx 15 $resz) simpleGrading (1 1 1)
);

edges
(
);

boundary
(
    leftWall_air
    {
        type patch;
        faces
        (
            (2 8 10 4)
        );
    }

    leftWall_water
    {
        type patch;
        faces
        (
            (0 6 8 2)
        );
    }

    rightwall_boundary
    {
        type patch;
        faces
        (
            (1 3 9 7)
            (3 5 11 9)
        );
    }
    lowerWall
    {
        type wall;
        faces
        (
            (0 1 7 6)
        );
    }
    atmosphere
    {
        type patch;
        faces
        (
        (4 5 10 11)
        );
    }
);

mergePatchPairs
(
);

// ************************************************************************* //
