/*--------------------------------*- C++ -*----------------------------------*\
  =========                 |
  \\      /  F ield         | OpenFOAM: The Open Source CFD Toolbox
   \\    /   O peration     | Website:  https://openfoam.org
    \\  /    A nd           | Version:  7
     \\/     M anipulation  |
\*---------------------------------------------------------------------------*/
FoamFile
{
    version     2.0;
    format      ascii;
    class       dictionary;
    location    "system";
    object      setFieldsDict;
}
// * * * * * * * * * * * * * * * * * * * * * * * * * * * * * * * * * * * * * //

defaultFieldValues
(
    volScalarFieldValue alpha.water 0
    // volVectorFieldValue U (0 0 0)
);

xleft 0;
xmiddle 5;
xright 10;

ybottom 0;
ymiddle 5;
ytop 10;

zback 0;
zmiddle 5;
zfront 10;

rad 1;

regions
(
    boxToCell
    {
        box ($xleft $ybottom $zback) ($xright $ymiddle $zfront);
        fieldValues
        (
            volScalarFieldValue alpha.water 1
            // volVectorFieldValue U (1.6 0 0)

        );
    }

    // boxToCell
    // {
    //     box ($xleft $ybottom $zback) ($xmiddle $ymiddle $zfront);
    //     fieldValues
    //     (
    //         volVectorFieldValue U (1.6 0 0)
    //     );
    // }


);


// ************************************************************************* //
