/*--------------------------------*- C++ -*----------------------------------*\
| =========                 |                                                 |
| \\      /  F ield         | OpenFOAM: The Open Source CFD Toolbox           |
|  \\    /   O peration     | Version:  5                                     |
|   \\  /    A nd           | Web:      www.OpenFOAM.org                      |
|    \\/     M anipulation  |                                                 |
\*---------------------------------------------------------------------------*/
FoamFile
{
    version     2.0;
    format      ascii;
    class       volScalarField;
    object      kappa;
}
// * * * * * * * * * * * * * * * * * * * * * * * * * * * * * * * * * * * * * //

dimensions      [1  1 -3 -1 0 0 0];

internalField   uniform 100;

boundaryField
{
    #includeEtc "caseDicts/setConstraintTypes"
    
    interface
    {
        type            fixedValue;
        value           $internalField;
    }

    left
    {
        type            empty;
    }

    right
    {
        type            empty;
    }

    bottom
    {
        type            empty;
    }
    
    defaultFaces
    {
        type            empty;
    }
}

// ************************************************************************* //
